Version 4
SHEET 1 1720 680
WIRE 480 0 80 0
WIRE 528 0 480 0
WIRE 480 48 480 0
WIRE 528 48 528 0
WIRE 80 128 80 0
WIRE 480 144 480 112
WIRE 528 144 528 112
WIRE 656 144 528 144
WIRE 864 144 736 144
WIRE 880 144 864 144
WIRE 1008 144 880 144
WIRE 480 176 480 144
WIRE 528 176 528 144
WIRE 880 192 880 144
WIRE 1008 192 1008 144
WIRE 80 288 80 208
WIRE 480 288 480 240
WIRE 480 288 80 288
WIRE 528 288 528 240
WIRE 528 288 480 288
WIRE 880 288 880 256
FLAG 480 144 0
FLAG 864 144 vrect
FLAG 880 288 0
FLAG 1008 272 0
SYMBOL voltage 80 112 R0
WINDOW 123 0 0 Left 0
WINDOW 39 0 0 Left 0
SYMATTR InstName V1
SYMATTR Value SINE(0 7 50)
SYMBOL schottky 512 48 R0
SYMATTR InstName D1
SYMATTR Value 1N5817
SYMATTR Description Diode
SYMATTR Type diode
SYMBOL schottky 496 176 M0
SYMATTR InstName D2
SYMATTR Value 1N5817
SYMATTR Description Diode
SYMATTR Type diode
SYMBOL schottky 496 112 R180
WINDOW 0 24 64 Left 2
WINDOW 3 24 0 Left 2
SYMATTR InstName D3
SYMATTR Value 1N5817
SYMATTR Description Diode
SYMATTR Type diode
SYMBOL schottky 512 240 M180
WINDOW 0 24 64 Left 2
WINDOW 3 24 0 Left 2
SYMATTR InstName D4
SYMATTR Value 1N5817
SYMATTR Description Diode
SYMATTR Type diode
SYMBOL cap 864 192 R0
SYMATTR InstName C1
SYMATTR Value 752µ
SYMBOL res 752 128 R90
WINDOW 0 0 56 VBottom 2
WINDOW 3 32 56 VTop 2
SYMATTR InstName R4
SYMATTR Value 0
SYMBOL current 1008 192 R0
WINDOW 123 0 0 Left 0
WINDOW 39 0 0 Left 0
SYMATTR InstName I1
SYMATTR Value 0.25
TEXT 48 296 Left 2 !.tran 0 1.0 0.95
